*SPEF "ieee 1481-1999"
*DESIGN "user_proj_example"
*DATE "11:11:11 Fri 11 11, 1111"
*VENDOR "OpenRCX"
*PROGRAM "Parallel Extraction"
*VERSION "1.0"
*DESIGN_FLOW "NAME_SCOPE LOCAL" "PIN_CAP NONE"
*DIVIDER /
*DELIMITER :
*BUS_DELIMITER []
*T_UNIT 1 NS
*C_UNIT 1 PF
*R_UNIT 1 OHM
*L_UNIT 1 HENRY

*NAME_MAP
*1 A[0]
*2 A[1]
*3 A[2]
*4 A[3]
*5 A[4]
*6 A[5]
*7 A[6]
*8 A[7]
*9 B[0]
*10 B[1]
*11 B[2]
*12 B[3]
*13 B[4]
*14 B[5]
*15 B[6]
*16 B[7]
*17 clock
*18 reset
*19 sum[0]
*20 sum[1]
*21 sum[2]
*22 sum[3]
*23 sum[4]
*24 sum[5]
*25 sum[6]
*26 sum[7]
*29 _000_
*30 _001_
*31 _002_
*32 _003_
*33 _004_
*34 _005_
*35 _006_
*36 _007_
*37 _008_
*38 _009_
*39 _010_
*40 _011_
*41 _012_
*42 _013_
*43 _014_
*44 _015_
*45 _016_
*46 _017_
*47 _018_
*48 _019_
*49 _020_
*50 _021_
*51 _022_
*52 _023_
*53 _024_
*54 _025_
*55 _026_
*56 _027_
*57 _028_
*58 _029_
*59 _030_
*60 _031_
*61 _032_
*62 _033_
*63 _034_
*64 _035_
*65 _036_
*66 _037_
*67 _038_
*68 _039_
*69 _040_
*70 _041_
*71 _042_
*72 _043_
*73 _044_
*74 _045_
*75 _046_
*76 _047_
*77 _048_
*78 _049_
*79 _050_
*80 _051_
*81 _052_
*82 _053_
*83 _054_
*84 _055_
*85 _056_
*86 _057_
*87 _058_
*88 _059_
*89 _060_
*90 _061_
*91 _062_
*92 _063_
*93 _064_
*94 _065_
*95 _066_
*96 _067_
*97 _068_
*98 _069_
*99 _070_
*100 _071_
*101 _072_
*102 _073_
*103 _074_
*104 count\[0\]
*105 count\[1\]
*106 count\[2\]
*107 count\[3\]
*108 net1
*109 net10
*110 net11
*111 net12
*112 net13
*113 net14
*114 net15
*115 net16
*116 net17
*117 net18
*118 net19
*119 net2
*120 net20
*121 net21
*122 net22
*123 net23
*124 net24
*125 net25
*126 net26
*127 net27
*128 net28
*129 net29
*130 net3
*131 net4
*132 net5
*133 net6
*134 net7
*135 net8
*136 net9
*137 shift_A\.q\[0\]
*138 shift_A\.q\[1\]
*139 shift_A\.q\[2\]
*140 shift_A\.q\[3\]
*141 shift_A\.q\[4\]
*142 shift_A\.q\[5\]
*143 shift_A\.q\[6\]
*144 shift_A\.q\[7\]
*145 shift_B\.q\[0\]
*146 shift_B\.q\[1\]
*147 shift_B\.q\[2\]
*148 shift_B\.q\[3\]
*149 shift_B\.q\[4\]
*150 shift_B\.q\[5\]
*151 shift_B\.q\[6\]
*152 shift_B\.q\[7\]
*153 y
*154 ANTENNA__075__A
*155 ANTENNA__076__S
*156 ANTENNA__078__S
*157 ANTENNA__080__S
*158 ANTENNA__082__S
*159 ANTENNA__084__A
*160 ANTENNA__085__S
*161 ANTENNA__087__A1
*162 ANTENNA__087__S
*163 ANTENNA__088__A
*164 ANTENNA__089__S
*165 ANTENNA__091__A1
*166 ANTENNA__091__S
*167 ANTENNA__093__S
*168 ANTENNA__095__S
*169 ANTENNA__097__S
*170 ANTENNA__099__S
*171 ANTENNA__101__S
*172 ANTENNA__103__S
*173 ANTENNA__105__A
*174 ANTENNA__107__B1
*175 ANTENNA__109__C1
*176 ANTENNA__113__B1
*177 ANTENNA__115__C1
*178 ANTENNA__117__A
*179 ANTENNA__119__A
*180 ANTENNA__119__B
*181 ANTENNA__121__A
*182 ANTENNA__125__A0
*183 ANTENNA__125__A1
*184 ANTENNA__125__S
*185 ANTENNA__126__A
*186 ANTENNA__128__A0
*187 ANTENNA__128__A1
*188 ANTENNA__128__S
*189 ANTENNA__129__A
*190 ANTENNA__131__A0
*191 ANTENNA__131__A1
*192 ANTENNA__131__S
*193 ANTENNA__132__A
*194 ANTENNA__134__A0
*195 ANTENNA__134__S
*196 ANTENNA__135__A
*197 ANTENNA__137__A1
*198 ANTENNA__137__S
*199 ANTENNA__138__A
*200 ANTENNA__140__A0
*201 ANTENNA__140__A1
*202 ANTENNA__140__S
*203 ANTENNA__141__A
*204 ANTENNA__143__A0
*205 ANTENNA__143__A1
*206 ANTENNA__143__S
*207 ANTENNA__144__A
*208 ANTENNA__148__A
*209 ANTENNA__148__B
*210 ANTENNA__149__A1
*211 ANTENNA__149__A2
*212 ANTENNA__149__C1
*213 ANTENNA__150__CLK
*214 ANTENNA__151__CLK
*215 ANTENNA__152__CLK
*216 ANTENNA__153__CLK
*217 ANTENNA__154__CLK
*218 ANTENNA__155__CLK
*219 ANTENNA__156__CLK
*220 ANTENNA__157__CLK
*221 ANTENNA__158__CLK
*222 ANTENNA__159__CLK
*223 ANTENNA__160__CLK
*224 ANTENNA__161__CLK
*225 ANTENNA__162__CLK
*226 ANTENNA__163__CLK
*227 ANTENNA__164__CLK
*228 ANTENNA__165__CLK
*229 ANTENNA__166__CLK
*230 ANTENNA__167__CLK
*231 ANTENNA__168__CLK
*232 ANTENNA__169__CLK
*233 ANTENNA__170__CLK
*234 ANTENNA__171__CLK
*235 ANTENNA__172__CLK
*236 ANTENNA__173__CLK
*237 ANTENNA__174__CLK
*238 ANTENNA__175__CLK
*239 ANTENNA__176__CLK
*240 ANTENNA__177__CLK
*241 ANTENNA__178__CLK
*242 ANTENNA_fanout27_A
*243 ANTENNA_fanout28_A
*244 ANTENNA_fanout29_A
*245 ANTENNA_input10_A
*246 ANTENNA_input11_A
*247 ANTENNA_input12_A
*248 ANTENNA_input13_A
*249 ANTENNA_input14_A
*250 ANTENNA_input15_A
*251 ANTENNA_input16_A
*252 ANTENNA_input17_A
*253 ANTENNA_input18_A
*254 ANTENNA_input1_A
*255 ANTENNA_input2_A
*256 ANTENNA_input3_A
*257 ANTENNA_input4_A
*258 ANTENNA_input5_A
*259 ANTENNA_input6_A
*260 ANTENNA_input7_A
*261 ANTENNA_input8_A
*262 ANTENNA_input9_A
*263 ANTENNA_output19_A
*264 ANTENNA_output20_A
*265 ANTENNA_output21_A
*266 ANTENNA_output22_A
*267 ANTENNA_output24_A
*268 ANTENNA_output25_A
*269 ANTENNA_output26_A
*270 FILLER_0_1005
*271 FILLER_0_1009
*272 FILLER_0_1017
*273 FILLER_0_1023
*274 FILLER_0_1029
*275 FILLER_0_1035
*276 FILLER_0_1037
*277 FILLER_0_1049
*278 FILLER_0_1061
*279 FILLER_0_1065
*280 FILLER_0_1077
*281 FILLER_0_1089
*282 FILLER_0_109
*283 FILLER_0_1093
*284 FILLER_0_1105
*285 FILLER_0_1113
*286 FILLER_0_1118
*287 FILLER_0_1121
*288 FILLER_0_113
*289 FILLER_0_1132
*290 FILLER_0_1139
*291 FILLER_0_1145
*292 FILLER_0_1149
*293 FILLER_0_1161
*294 FILLER_0_1173
*295 FILLER_0_1177
*296 FILLER_0_1189
*297 FILLER_0_1201
*298 FILLER_0_1205
*299 FILLER_0_1217
*300 FILLER_0_1225
*301 FILLER_0_1230
*302 FILLER_0_1233
*303 FILLER_0_1238
*304 FILLER_0_1245
*305 FILLER_0_125
*306 FILLER_0_1251
*307 FILLER_0_1259
*308 FILLER_0_1261
*309 FILLER_0_1273
*310 FILLER_0_1285
*311 FILLER_0_1289
*312 FILLER_0_1301
*313 FILLER_0_1313
*314 FILLER_0_1317
*315 FILLER_0_1329
*316 FILLER_0_1341
*317 FILLER_0_1345
*318 FILLER_0_1350
*319 FILLER_0_1356
*320 FILLER_0_1368
*321 FILLER_0_137
*322 FILLER_0_1373
*323 FILLER_0_1385
*324 FILLER_0_1397
*325 FILLER_0_1401
*326 FILLER_0_141
*327 FILLER_0_1413
*328 FILLER_0_1425
*329 FILLER_0_1429
*330 FILLER_0_1441
*331 FILLER_0_1453
*332 FILLER_0_1457
*333 FILLER_0_1462
*334 FILLER_0_1468
*335 FILLER_0_1480
*336 FILLER_0_1485
*337 FILLER_0_149
*338 FILLER_0_1490
*339 FILLER_0_15
*340 FILLER_0_1502
*341 FILLER_0_1509
*342 FILLER_0_1513
*343 FILLER_0_1517
*344 FILLER_0_152
*345 FILLER_0_1534
*346 FILLER_0_1541
*347 FILLER_0_1559
*348 FILLER_0_1566
*349 FILLER_0_1569
*350 FILLER_0_1573
*351 FILLER_0_1579
*352 FILLER_0_1591
*353 FILLER_0_1595
*354 FILLER_0_1597
*355 FILLER_0_1609
*356 FILLER_0_162
*357 FILLER_0_1621
*358 FILLER_0_1625
*359 FILLER_0_1637
*360 FILLER_0_1649
*361 FILLER_0_1653
*362 FILLER_0_1665
*363 FILLER_0_1671
*364 FILLER_0_1677
*365 FILLER_0_1681
*366 FILLER_0_169
*367 FILLER_0_1693
*368 FILLER_0_1705
*369 FILLER_0_1709
*370 FILLER_0_1721
*371 FILLER_0_1733
*372 FILLER_0_1737
*373 FILLER_0_1749
*374 FILLER_0_1761
*375 FILLER_0_1765
*376 FILLER_0_1773
*377 FILLER_0_1779
*378 FILLER_0_1785
*379 FILLER_0_1791
*380 FILLER_0_1793
*381 FILLER_0_1805
*382 FILLER_0_181
*383 FILLER_0_1817
*384 FILLER_0_1821
*385 FILLER_0_1833
*386 FILLER_0_1845
*387 FILLER_0_1849
*388 FILLER_0_1861
*389 FILLER_0_1873
*390 FILLER_0_1877
*391 FILLER_0_1883
*392 FILLER_0_1894
*393 FILLER_0_1902
*394 FILLER_0_1905
*395 FILLER_0_1917
*396 FILLER_0_193
*397 FILLER_0_197
*398 FILLER_0_209
*399 FILLER_0_221
*400 FILLER_0_225
*401 FILLER_0_237
*402 FILLER_0_249
*403 FILLER_0_253
*404 FILLER_0_257
*405 FILLER_0_260
*406 FILLER_0_27
*407 FILLER_0_274
*408 FILLER_0_281
*409 FILLER_0_29
*410 FILLER_0_293
*411 FILLER_0_3
*412 FILLER_0_305
*413 FILLER_0_309
*414 FILLER_0_321
*415 FILLER_0_333
*416 FILLER_0_337
*417 FILLER_0_349
*418 FILLER_0_361
*419 FILLER_0_365
*420 FILLER_0_371
*421 FILLER_0_375
*422 FILLER_0_381
*423 FILLER_0_389
*424 FILLER_0_393
*425 FILLER_0_405
*426 FILLER_0_41
*427 FILLER_0_417
*428 FILLER_0_421
*429 FILLER_0_433
*430 FILLER_0_445
*431 FILLER_0_449
*432 FILLER_0_461
*433 FILLER_0_473
*434 FILLER_0_477
*435 FILLER_0_483
*436 FILLER_0_489
*437 FILLER_0_493
*438 FILLER_0_496
*439 FILLER_0_502
*440 FILLER_0_505
*441 FILLER_0_517
*442 FILLER_0_530
*443 FILLER_0_533
*444 FILLER_0_538
*445 FILLER_0_54
*446 FILLER_0_553
*447 FILLER_0_559
*448 FILLER_0_561
*449 FILLER_0_569
*450 FILLER_0_57
*451 FILLER_0_576
*452 FILLER_0_582
*453 FILLER_0_586
*454 FILLER_0_589
*455 FILLER_0_600
*456 FILLER_0_606
*457 FILLER_0_61
*458 FILLER_0_612
*459 FILLER_0_617
*460 FILLER_0_629
*461 FILLER_0_641
*462 FILLER_0_645
*463 FILLER_0_657
*464 FILLER_0_669
*465 FILLER_0_673
*466 FILLER_0_681
*467 FILLER_0_685
*468 FILLER_0_695
*469 FILLER_0_699
*470 FILLER_0_701
*471 FILLER_0_706
*472 FILLER_0_712
*473 FILLER_0_724
*474 FILLER_0_729
*475 FILLER_0_73
*476 FILLER_0_741
*477 FILLER_0_753
*478 FILLER_0_757
*479 FILLER_0_769
*480 FILLER_0_777
*481 FILLER_0_782
*482 FILLER_0_785
*483 FILLER_0_793
*484 FILLER_0_806
*485 FILLER_0_81
*486 FILLER_0_813
*487 FILLER_0_818
*488 FILLER_0_824
*489 FILLER_0_836
*490 FILLER_0_841
*491 FILLER_0_85
*492 FILLER_0_853
*493 FILLER_0_865
*494 FILLER_0_869
*495 FILLER_0_881
*496 FILLER_0_893
*497 FILLER_0_897
*498 FILLER_0_901
*499 FILLER_0_914
*500 FILLER_0_921
*501 FILLER_0_925
*502 FILLER_0_937
*503 FILLER_0_949
*504 FILLER_0_953
*505 FILLER_0_965
*506 FILLER_0_97
*507 FILLER_0_977
*508 FILLER_0_981
*509 FILLER_0_993
*510 FILLER_100_1005
*511 FILLER_100_1017
*512 FILLER_100_1029
*513 FILLER_100_1035
*514 FILLER_100_1037
*515 FILLER_100_1049
*516 FILLER_100_1061
*517 FILLER_100_1073
*518 FILLER_100_1085
*519 FILLER_100_109
*520 FILLER_100_1091
*521 FILLER_100_1093
*522 FILLER_100_1105
*523 FILLER_100_1117
*524 FILLER_100_1129
*525 FILLER_100_1141
*526 FILLER_100_1147
*527 FILLER_100_1149
*528 FILLER_100_1161
*529 FILLER_100_1173
*530 FILLER_100_1185
*531 FILLER_100_1197
*532 FILLER_100_1203
*533 FILLER_100_1205
*534 FILLER_100_121
*535 FILLER_100_1217
*536 FILLER_100_1229
*537 FILLER_100_1241
*538 FILLER_100_1253
*539 FILLER_100_1259
*540 FILLER_100_1261
*541 FILLER_100_1273
*542 FILLER_100_1285
*543 FILLER_100_1297
*544 FILLER_100_1309
*545 FILLER_100_1315
*546 FILLER_100_1317
*547 FILLER_100_1329
*548 FILLER_100_133
*549 FILLER_100_1341
*550 FILLER_100_1353
*551 FILLER_100_1365
*552 FILLER_100_1371
*553 FILLER_100_1373
*554 FILLER_100_1385
*555 FILLER_100_139
*556 FILLER_100_1397
*557 FILLER_100_1409
*558 FILLER_100_141
*559 FILLER_100_1421
*560 FILLER_100_1427
*561 FILLER_100_1429
*562 FILLER_100_1441
*563 FILLER_100_1453
*564 FILLER_100_1465
*565 FILLER_100_1477
*566 FILLER_100_1483
*567 FILLER_100_1485
*568 FILLER_100_1497
*569 FILLER_100_15
*570 FILLER_100_1509
*571 FILLER_100_1521
*572 FILLER_100_153
*573 FILLER_100_1533
*574 FILLER_100_1539
*575 FILLER_100_1541
*576 FILLER_100_1553
*577 FILLER_100_1565
*578 FILLER_100_1577
*579 FILLER_100_1589
*580 FILLER_100_1595
*581 FILLER_100_1597
*582 FILLER_100_1609
*583 FILLER_100_1621
*584 FILLER_100_1633
*585 FILLER_100_1645
*586 FILLER_100_165
*587 FILLER_100_1651
*588 FILLER_100_1653
*589 FILLER_100_1665
*590 FILLER_100_1677
*591 FILLER_100_1689
*592 FILLER_100_1701
*593 FILLER_100_1707
*594 FILLER_100_1709
*595 FILLER_100_1721
*596 FILLER_100_1733
*597 FILLER_100_1745
*598 FILLER_100_1757
*599 FILLER_100_1763
*600 FILLER_100_1765
*601 FILLER_100_177
*602 FILLER_100_1777
*603 FILLER_100_1789
*604 FILLER_100_1801
*605 FILLER_100_1813
*606 FILLER_100_1819
*607 FILLER_100_1821
*608 FILLER_100_1833
*609 FILLER_100_1845
*610 FILLER_100_1857
*611 FILLER_100_1869
*612 FILLER_100_1875
*613 FILLER_100_1877
*614 FILLER_100_1889
*615 FILLER_100_189
*616 FILLER_100_1901
*617 FILLER_100_1913
*618 FILLER_100_1925
*619 FILLER_100_195
*620 FILLER_100_197
*621 FILLER_100_209
*622 FILLER_100_221
*623 FILLER_100_233
*624 FILLER_100_245
*625 FILLER_100_251
*626 FILLER_100_253
*627 FILLER_100_265
*628 FILLER_100_27
*629 FILLER_100_277
*630 FILLER_100_289
*631 FILLER_100_29
*632 FILLER_100_3
*633 FILLER_100_301
*634 FILLER_100_307
*635 FILLER_100_309
*636 FILLER_100_321
*637 FILLER_100_333
*638 FILLER_100_345
*639 FILLER_100_357
*640 FILLER_100_363
*641 FILLER_100_365
*642 FILLER_100_377
*643 FILLER_100_389
*644 FILLER_100_401
*645 FILLER_100_41
*646 FILLER_100_413
*647 FILLER_100_419
*648 FILLER_100_421
*649 FILLER_100_433
*650 FILLER_100_445
*651 FILLER_100_457
*652 FILLER_100_469
*653 FILLER_100_475
*654 FILLER_100_477
*655 FILLER_100_489
*656 FILLER_100_501
*657 FILLER_100_513
*658 FILLER_100_525
*659 FILLER_100_53
*660 FILLER_100_531
*661 FILLER_100_533
*662 FILLER_100_545
*663 FILLER_100_557
*664 FILLER_100_569
*665 FILLER_100_581
*666 FILLER_100_587
*667 FILLER_100_589
*668 FILLER_100_601
*669 FILLER_100_613
*670 FILLER_100_625
*671 FILLER_100_637
*672 FILLER_100_643
*673 FILLER_100_645
*674 FILLER_100_65
*675 FILLER_100_657
*676 FILLER_100_669
*677 FILLER_100_681
*678 FILLER_100_693
*679 FILLER_100_699
*680 FILLER_100_701
*681 FILLER_100_713
*682 FILLER_100_725
*683 FILLER_100_737
*684 FILLER_100_749
*685 FILLER_100_755
*686 FILLER_100_757
*687 FILLER_100_769
*688 FILLER_100_77
*689 FILLER_100_781
*690 FILLER_100_793
*691 FILLER_100_805
*692 FILLER_100_811
*693 FILLER_100_813
*694 FILLER_100_825
*695 FILLER_100_83
*696 FILLER_100_837
*697 FILLER_100_849
*698 FILLER_100_85
*699 FILLER_100_861
*700 FILLER_100_867
*701 FILLER_100_869
*702 FILLER_100_881
*703 FILLER_100_893
*704 FILLER_100_905
*705 FILLER_100_917
*706 FILLER_100_923
*707 FILLER_100_925
*708 FILLER_100_937
*709 FILLER_100_949
*710 FILLER_100_961
*711 FILLER_100_97
*712 FILLER_100_973
*713 FILLER_100_979
*714 FILLER_100_981
*715 FILLER_100_993
*716 FILLER_101_1001
*717 FILLER_101_1007
*718 FILLER_101_1009
*719 FILLER_101_1021
*720 FILLER_101_1033
*721 FILLER_101_1045
*722 FILLER_101_105
*723 FILLER_101_1057
*724 FILLER_101_1063
*725 FILLER_101_1065
*726 FILLER_101_1077
*727 FILLER_101_1089
*728 FILLER_101_1101
*729 FILLER_101_111
*730 FILLER_101_1113
*731 FILLER_101_1119
*732 FILLER_101_1121
*733 FILLER_101_113
*734 FILLER_101_1133
*735 FILLER_101_1145
*736 FILLER_101_1157
*737 FILLER_101_1169
*738 FILLER_101_1175
*739 FILLER_101_1177
*740 FILLER_101_1189
*741 FILLER_101_1201
*742 FILLER_101_1213
*743 FILLER_101_1225
*744 FILLER_101_1231
*745 FILLER_101_1233
*746 FILLER_101_1245
*747 FILLER_101_125
*748 FILLER_101_1257
*749 FILLER_101_1269
*750 FILLER_101_1281
*751 FILLER_101_1287
*752 FILLER_101_1289
*753 FILLER_101_1301
*754 FILLER_101_1313
*755 FILLER_101_1325
*756 FILLER_101_1337
*757 FILLER_101_1343
*758 FILLER_101_1345
*759 FILLER_101_1357
*760 FILLER_101_1369
*761 FILLER_101_137
*762 FILLER_101_1381
*763 FILLER_101_1393
*764 FILLER_101_1399
*765 FILLER_101_1401
*766 FILLER_101_1413
*767 FILLER_101_1425
*768 FILLER_101_1437
*769 FILLER_101_1449
*770 FILLER_101_1455
*771 FILLER_101_1457
*772 FILLER_101_1469
*773 FILLER_101_1481
*774 FILLER_101_149
*775 FILLER_101_1493
*776 FILLER_101_15
*777 FILLER_101_1505
*778 FILLER_101_1511
*779 FILLER_101_1513
*780 FILLER_101_1525
*781 FILLER_101_1537
*782 FILLER_101_1549
*783 FILLER_101_1561
*784 FILLER_101_1567
*785 FILLER_101_1569
*786 FILLER_101_1581
*787 FILLER_101_1593
*788 FILLER_101_1605
*789 FILLER_101_161
*790 FILLER_101_1617
*791 FILLER_101_1623
*792 FILLER_101_1625
*793 FILLER_101_1637
*794 FILLER_101_1649
*795 FILLER_101_1661
*796 FILLER_101_167
*797 FILLER_101_1673
*798 FILLER_101_1679
*799 FILLER_101_1681
*800 FILLER_101_169
*801 FILLER_101_1693
*802 FILLER_101_1705
*803 FILLER_101_1717
*804 FILLER_101_1729
*805 FILLER_101_1735
*806 FILLER_101_1737
*807 FILLER_101_1749
*808 FILLER_101_1761
*809 FILLER_101_1773
*810 FILLER_101_1785
*811 FILLER_101_1791
*812 FILLER_101_1793
*813 FILLER_101_1805
*814 FILLER_101_181
*815 FILLER_101_1817
*816 FILLER_101_1829
*817 FILLER_101_1841
*818 FILLER_101_1847
*819 FILLER_101_1849
*820 FILLER_101_1861
*821 FILLER_101_1873
*822 FILLER_101_1885
*823 FILLER_101_1897
*824 FILLER_101_1903
*825 FILLER_101_1905
*826 FILLER_101_1917
*827 FILLER_101_193
*828 FILLER_101_205
*829 FILLER_101_217
*830 FILLER_101_223
*831 FILLER_101_225
*832 FILLER_101_237
*833 FILLER_101_249
*834 FILLER_101_261
*835 FILLER_101_27
*836 FILLER_101_273
*837 FILLER_101_279
*838 FILLER_101_281
*839 FILLER_101_293
*840 FILLER_101_3
*841 FILLER_101_305
*842 FILLER_101_317
*843 FILLER_101_329
*844 FILLER_101_335
*845 FILLER_101_337
*846 FILLER_101_349
*847 FILLER_101_361
*848 FILLER_101_373
*849 FILLER_101_385
*850 FILLER_101_39
*851 FILLER_101_391
*852 FILLER_101_393
*853 FILLER_101_405
*854 FILLER_101_417
*855 FILLER_101_429
*856 FILLER_101_441
*857 FILLER_101_447
*858 FILLER_101_449
*859 FILLER_101_461
*860 FILLER_101_473
*861 FILLER_101_485
*862 FILLER_101_497
*863 FILLER_101_503
*864 FILLER_101_505
*865 FILLER_101_51
*866 FILLER_101_517
*867 FILLER_101_529
*868 FILLER_101_541
*869 FILLER_101_55
*870 FILLER_101_553
*871 FILLER_101_559
*872 FILLER_101_561
*873 FILLER_101_57
*874 FILLER_101_573
*875 FILLER_101_585
*876 FILLER_101_597
*877 FILLER_101_609
*878 FILLER_101_615
*879 FILLER_101_617
*880 FILLER_101_629
*881 FILLER_101_641
*882 FILLER_101_653
*883 FILLER_101_665
*884 FILLER_101_671
*885 FILLER_101_673
*886 FILLER_101_685
*887 FILLER_101_69
*888 FILLER_101_697
*889 FILLER_101_709
*890 FILLER_101_721
*891 FILLER_101_727
*892 FILLER_101_729
*893 FILLER_101_741
*894 FILLER_101_753
*895 FILLER_101_765
*896 FILLER_101_777
*897 FILLER_101_783
*898 FILLER_101_785
*899 FILLER_101_797
*900 FILLER_101_809
*901 FILLER_101_81
*902 FILLER_101_821
*903 FILLER_101_833
*904 FILLER_101_839
*905 FILLER_101_841
*906 FILLER_101_853
*907 FILLER_101_865
*908 FILLER_101_877
*909 FILLER_101_889
*910 FILLER_101_895
*911 FILLER_101_897
*912 FILLER_101_909
*913 FILLER_101_921
*914 FILLER_101_93
*915 FILLER_101_933
*916 FILLER_101_945
*917 FILLER_101_951
*918 FILLER_101_953
*919 FILLER_101_965
*920 FILLER_101_977
*921 FILLER_101_989
*922 FILLER_102_1005
*923 FILLER_102_1017
*924 FILLER_102_1029
*925 FILLER_102_1035
*926 FILLER_102_1037
*927 FILLER_102_1049
*928 FILLER_102_1061
*929 FILLER_102_1073
*930 FILLER_102_1085
*931 FILLER_102_109
*932 FILLER_102_1091
*933 FILLER_102_1093
*934 FILLER_102_1105
*935 FILLER_102_1117
*936 FILLER_102_1129
*937 FILLER_102_1141
*938 FILLER_102_1147
*939 FILLER_102_1149
*940 FILLER_102_1161
*941 FILLER_102_1173
*942 FILLER_102_1185
*943 FILLER_102_1197
*944 FILLER_102_1203
*945 FILLER_102_1205
*946 FILLER_102_121
*947 FILLER_102_1217
*948 FILLER_102_1229
*949 FILLER_102_1241
*950 FILLER_102_1253
*951 FILLER_102_1259
*952 FILLER_102_1261
*953 FILLER_102_1273
*954 FILLER_102_1285
*955 FILLER_102_1297
*956 FILLER_102_1309
*957 FILLER_102_1315
*958 FILLER_102_1317
*959 FILLER_102_1329
*960 FILLER_102_133
*961 FILLER_102_1341
*962 FILLER_102_1353
*963 FILLER_102_1365
*964 FILLER_102_1371
*965 FILLER_102_1373
*966 FILLER_102_1385
*967 FILLER_102_139
*968 FILLER_102_1397
*969 FILLER_102_1409
*970 FILLER_102_141
*971 FILLER_102_1421
*972 FILLER_102_1427
*973 FILLER_102_1429
*974 FILLER_102_1441
*975 FILLER_102_1453
*976 FILLER_102_1465
*977 FILLER_102_1477
*978 FILLER_102_1483
*979 FILLER_102_1485
*980 FILLER_102_1497
*981 FILLER_102_15
*982 FILLER_102_1509
*983 FILLER_102_1521
*984 FILLER_102_153
*985 FILLER_102_1533
*986 FILLER_102_1539
*987 FILLER_102_1541
*988 FILLER_102_1553
*989 FILLER_102_1565
*990 FILLER_102_1577
*991 FILLER_102_1589
*992 FILLER_102_1595
*993 FILLER_102_1597
*994 FILLER_102_1609
*995 FILLER_102_1621
*996 FILLER_102_1633
*997 FILLER_102_1645
*998 FILLER_102_165
*999 FILLER_102_1651
*1000 FILLER_102_1653
*1001 FILLER_102_1665
*1002 FILLER_102_1677
*1003 FILLER_102_1689
*1004 FILLER_102_1701
*1005 FILLER_102_1707
*1006 FILLER_102_1709
*1007 FILLER_102_1721
*1008 FILLER_102_1733
*1009 FILLER_102_1745
*1010 FILLER_102_1757
*1011 FILLER_102_1763
*1012 FILLER_102_1765
*1013 FILLER_102_177
*1014 FILLER_102_1777
*1015 FILLER_102_1789
*1016 FILLER_102_1801
*1017 FILLER_102_1813
*1018 FILLER_102_1819
*1019 FILLER_102_1821
*1020 FILLER_102_1833
*1021 FILLER_102_1845
*1022 FILLER_102_1857
*1023 FILLER_102_1869
*1024 FILLER_102_1875
*1025 FILLER_102_1877
*1026 FILLER_102_1889
*1027 FILLER_102_189
*1028 FILLER_102_1901
*1029 FILLER_102_1913
*1030 FILLER_102_1925
*1031 FILLER_102_195
*1032 FILLER_102_197
*1033 FILLER_102_209
*1034 FILLER_102_221
*1035 FILLER_102_233
*1036 FILLER_102_245
*1037 FILLER_102_251
*1038 FILLER_102_253
*1039 FILLER_102_265
*1040 FILLER_102_27
*1041 FILLER_102_277
*1042 FILLER_102_289
*1043 FILLER_102_29
*1044 FILLER_102_3
*1045 FILLER_102_301
*1046 FILLER_102_307
*1047 FILLER_102_309
*1048 FILLER_102_321
*1049 FILLER_102_333
*1050 FILLER_102_345
*1051 FILLER_102_357
*1052 FILLER_102_363
*1053 FILLER_102_365
*1054 FILLER_102_377
*1055 FILLER_102_389
*1056 FILLER_102_401
*1057 FILLER_102_41
*1058 FILLER_102_413
*1059 FILLER_102_419
*1060 FILLER_102_421
*1061 FILLER_102_433
*1062 FILLER_102_445
*1063 FILLER_102_457
*1064 FILLER_102_469
*1065 FILLER_102_475
*1066 FILLER_102_477
*1067 FILLER_102_489
*1068 FILLER_102_501
*1069 FILLER_102_513
*1070 FILLER_102_525
*1071 FILLER_102_53
*1072 FILLER_102_531
*1073 FILLER_102_533
*1074 FILLER_102_545
*1075 FILLER_102_557
*1076 FILLER_102_569
*1077 FILLER_102_581
*1078 FILLER_102_587
*1079 FILLER_102_589
*1080 FILLER_102_601
*1081 FILLER_102_613
*1082 FILLER_102_625
*1083 FILLER_102_637
*1084 FILLER_102_643
*1085 FILLER_102_645
*1086 FILLER_102_65
*1087 FILLER_102_657
*1088 FILLER_102_669
*1089 FILLER_102_681
*1090 FILLER_102_693
*1091 FILLER_102_699
*1092 FILLER_102_701
*1093 FILLER_102_713
*1094 FILLER_102_725
*1095 FILLER_102_737
*1096 FILLER_102_749
*1097 FILLER_102_755
*1098 FILLER_102_757
*1099 FILLER_102_769
*1100 FILLER_102_77
*1101 FILLER_102_781
*1102 FILLER_102_793
*1103 FILLER_102_805
*1104 FILLER_102_811
*1105 FILLER_102_813
*1106 FILLER_102_825
*1107 FILLER_102_83
*1108 FILLER_102_837
*1109 FILLER_102_849
*1110 FILLER_102_85
*1111 FILLER_102_861
*1112 FILLER_102_867
*1113 FILLER_102_869
*1114 FILLER_102_881
*1115 FILLER_102_893
*1116 FILLER_102_905
*1117 FILLER_102_917
*1118 FILLER_102_923
*1119 FILLER_102_925
*1120 FILLER_102_937
*1121 FILLER_102_949
*1122 FILLER_102_961
*1123 FILLER_102_97
*1124 FILLER_102_973
*1125 FILLER_102_979
*1126 FILLER_102_981
*1127 FILLER_102_993
*1128 FILLER_103_1001
*1129 FILLER_103_1007
*1130 FILLER_103_1009
*1131 FILLER_103_1021
*1132 FILLER_103_1033
*1133 FILLER_103_1045
*1134 FILLER_103_105
*1135 FILLER_103_1057
*1136 FILLER_103_1063
*1137 FILLER_103_1065
*1138 FILLER_103_1077
*1139 FILLER_103_1089
*1140 FILLER_103_1101
*1141 FILLER_103_111
*1142 FILLER_103_1113
*1143 FILLER_103_1119
*1144 FILLER_103_1121
*1145 FILLER_103_113
*1146 FILLER_103_1133
*1147 FILLER_103_1145
*1148 FILLER_103_1157
*1149 FILLER_103_1169
*1150 FILLER_103_1175
*1151 FILLER_103_1177
*1152 FILLER_103_1189
*1153 FILLER_103_1201
*1154 FILLER_103_1213
*1155 FILLER_103_1225
*1156 FILLER_103_1231
*1157 FILLER_103_1233
*1158 FILLER_103_1245
*1159 FILLER_103_125
*1160 FILLER_103_1257
*1161 FILLER_103_1269
*1162 FILLER_103_1281
*1163 FILLER_103_1287
*1164 FILLER_103_1289
*1165 FILLER_103_1301
*1166 FILLER_103_1313
*1167 FILLER_103_1325
*1168 FILLER_103_1337
*1169 FILLER_103_1343
*1170 FILLER_103_1345
*1171 FILLER_103_1357
*1172 FILLER_103_1369
*1173 FILLER_103_137
*1174 FILLER_103_1381
*1175 FILLER_103_1393
*1176 FILLER_103_1399
*1177 FILLER_103_1401
*1178 FILLER_103_1413
*1179 FILLER_103_1425
*1180 FILLER_103_1437
*1181 FILLER_103_1449
*1182 FILLER_103_1455
*1183 FILLER_103_1457
*1184 FILLER_103_1469
*1185 FILLER_103_1481
*1186 FILLER_103_149
*1187 FILLER_103_1493
*1188 FILLER_103_15
*1189 FILLER_103_1505
*1190 FILLER_103_1511
*1191 FILLER_103_1513
*1192 FILLER_103_1525
*1193 FILLER_103_1537
*1194 FILLER_103_1549
*1195 FILLER_103_1561
*1196 FILLER_103_1567
*1197 FILLER_103_1569
*1198 FILLER_103_1581
*1199 FILLER_103_1593
*1200 FILLER_103_1605
*1201 FILLER_103_161
*1202 FILLER_103_1617
*1203 FILLER_103_1623
*1204 FILLER_103_1625
*1205 FILLER_103_1637
*1206 FILLER_103_1649
*1207 FILLER_103_1661
*1208 FILLER_103_167
*1209 FILLER_103_1673
*1210 FILLER_103_1679
*1211 FILLER_103_1681
*1212 FILLER_103_169
*1213 FILLER_103_1693
*1214 FILLER_103_1705
*1215 FILLER_103_1717
*1216 FILLER_103_1729
*1217 FILLER_103_1735
*1218 FILLER_103_1737
*1219 FILLER_103_1749
*1220 FILLER_103_1761
*1221 FILLER_103_1773
*1222 FILLER_103_1785
*1223 FILLER_103_1791
*1224 FILLER_103_1793
*1225 FILLER_103_1805
*1226 FILLER_103_181
*1227 FILLER_103_1817
*1228 FILLER_103_1829
*1229 FILLER_103_1841
*1230 FILLER_103_1847
*1231 FILLER_103_1849
*1232 FILLER_103_1861
*1233 FILLER_103_1873
*1234 FILLER_103_1885
*1235 FILLER_103_1897
*1236 FILLER_103_1903
*1237 FILLER_103_1905
*1238 FILLER_103_1917
*1239 FILLER_103_193
*1240 FILLER_103_205
*1241 FILLER_103_217
*1242 FILLER_103_223
*1243 FILLER_103_225
*1244 FILLER_103_237
*1245 FILLER_103_249
*1246 FILLER_103_261
*1247 FILLER_103_27
*1248 FILLER_103_273
*1249 FILLER_103_279
*1250 FILLER_103_281
*1251 FILLER_103_293
*1252 FILLER_103_3
*1253 FILLER_103_305
*1254 FILLER_103_317
*1255 FILLER_103_329
*1256 FILLER_103_335
*1257 FILLER_103_337
*1258 FILLER_103_349
*1259 FILLER_103_361
*1260 FILLER_103_373
*1261 FILLER_103_385
*1262 FILLER_103_39
*1263 FILLER_103_391
*1264 FILLER_103_393
*1265 FILLER_103_405
*1266 FILLER_103_417
*1267 FILLER_103_429
*1268 FILLER_103_441
*1269 FILLER_103_447
*1270 FILLER_103_449
*1271 FILLER_103_461
*1272 FILLER_103_473
*1273 FILLER_103_485
*1274 FILLER_103_497
*1275 FILLER_103_503
*1276 FILLER_103_505
*1277 FILLER_103_51
*1278 FILLER_103_517
*1279 FILLER_103_529
*1280 FILLER_103_541
*1281 FILLER_103_55
*1282 FILLER_103_553
*1283 FILLER_103_559
*1284 FILLER_103_561
*1285 FILLER_103_57
*1286 FILLER_103_573
*1287 FILLER_103_585
*1288 FILLER_103_597
*1289 FILLER_103_609
*1290 FILLER_103_615
*1291 FILLER_103_617
*1292 FILLER_103_629
*1293 FILLER_103_641
*1294 FILLER_103_653
*1295 FILLER_103_665
*1296 FILLER_103_671
*1297 FILLER_103_673
*1298 FILLER_103_685
*1299 FILLER_103_69
*1300 FILLER_103_697
*1301 FILLER_103_709
*1302 FILLER_103_721
*1303 FILLER_103_727
*1304 FILLER_103_729
*1305 FILLER_103_741
*1306 FILLER_103_753
*1307 FILLER_103_765
*1308 FILLER_103_777
*1309 FILLER_103_783
*1310 FILLER_103_785
*1311 FILLER_103_797
*1312 FILLER_103_809
*1313 FILLER_103_81
*1314 FILLER_103_821
*1315 FILLER_103_833
*1316 FILLER_103_839
*1317 FILLER_103_841
*1318 FILLER_103_853
*1319 FILLER_103_865
*1320 FILLER_103_877
*1321 FILLER_103_889
*1322 FILLER_103_895
*1323 FILLER_103_897
*1324 FILLER_103_909
*1325 FILLER_103_921
*1326 FILLER_103_93
*1327 FILLER_103_933
*1328 FILLER_103_945
*1329 FILLER_103_951
*1330 FILLER_103_953
*1331 FILLER_103_965
*1332 FILLER_103_977
*1333 FILLER_103_989
*1334 FILLER_104_1005
*1335 FILLER_104_1017
*1336 FILLER_104_1029
*1337 FILLER_104_1035
*1338 FILLER_104_1037
*1339 FILLER_104_1049
*1340 FILLER_104_1061
*1341 FILLER_104_1073
*1342 FILLER_104_1085
*1343 FILLER_104_109
*1344 FILLER_104_1091
*1345 FILLER_104_1093
*1346 FILLER_104_1105
*1347 FILLER_104_1117
*1348 FILLER_104_1129
*1349 FILLER_104_1141
*1350 FILLER_104_1147
*1351 FILLER_104_1149
*1352 FILLER_104_1161
*1353 FILLER_104_1173
*1354 FILLER_104_1185
*1355 FILLER_104_1197
*1356 FILLER_104_1203
*1357 FILLER_104_1205
*1358 FILLER_104_121
*1359 FILLER_104_1217
*1360 FILLER_104_1229
*1361 FILLER_104_1241
*1362 FILLER_104_1253
*1363 FILLER_104_1259
*1364 FILLER_104_1261
*1365 FILLER_104_1273
*1366 FILLER_104_1285
*1367 FILLER_104_1297
*1368 FILLER_104_1309
*1369 FILLER_104_1315
*1370 FILLER_104_1317
*1371 FILLER_104_1329
*1372 FILLER_104_133
*1373 FILLER_104_1341
*1374 FILLER_104_1353
*1375 FILLER_104_1365
*1376 FILLER_104_1371
*1377 FILLER_104_1373
*1378 FILLER_104_1385
*1379 FILLER_104_139
*1380 FILLER_104_1397
*1381 FILLER_104_1409
*1382 FILLER_104_141
*1383 FILLER_104_1421
*1384 FILLER_104_1427
*1385 FILLER_104_1429
*1386 FILLER_104_1441
*1387 FILLER_104_1453
*1388 FILLER_104_1465
*1389 FILLER_104_1477
*1390 FILLER_104_1483
*1391 FILLER_104_1485
*1392 FILLER_104_1497
*1393 FILLER_104_15
*1394 FILLER_104_1509
*1395 FILLER_104_1521
*1396 FILLER_104_153
*1397 FILLER_104_1533
*1398 FILLER_104_1539
*1399 FILLER_104_1541
*1400 FILLER_104_1553
*1401 FILLER_104_1565
*1402 FILLER_104_1577
*1403 FILLER_104_1589
*1404 FILLER_104_1595
*1405 FILLER_104_1597
*1406 FILLER_104_1609
*1407 FILLER_104_1621
*1408 FILLER_104_1633
*1409 FILLER_104_1645
*1410 FILLER_104_165
*1411 FILLER_104_1651
*1412 FILLER_104_1653
*1413 FILLER_104_1665
*1414 FILLER_104_1677
*1415 FILLER_104_1689
*1416 FILLER_104_1701
*1417 FILLER_104_1707
*1418 FILLER_104_1709
*1419 FILLER_104_1721
*1420 FILLER_104_1733
*1421 FILLER_104_1745
*1422 FILLER_104_1757
*1423 FILLER_104_1763
*1424 FILLER_104_1765
*1425 FILLER_104_177
*1426 FILLER_104_1777
*1427 FILLER_104_1789
*1428 FILLER_104_1801
*1429 FILLER_104_1813
*1430 FILLER_104_1819
*1431 FILLER_104_1821
*1432 FILLER_104_1833
*1433 FILLER_104_1845
*1434 FILLER_104_1857
*1435 FILLER_104_1869
*1436 FILLER_104_1875
*1437 FILLER_104_1877
*1438 FILLER_104_1889
*1439 FILLER_104_189
*1440 FILLER_104_1901
*1441 FILLER_104_1913
*1442 FILLER_104_1925
*1443 FILLER_104_195
*1444 FILLER_104_197
*1445 FILLER_104_209
*1446 FILLER_104_221
*1447 FILLER_104_233
*1448 FILLER_104_245
*1449 FILLER_104_251
*1450 FILLER_104_253
*1451 FILLER_104_265
*1452 FILLER_104_27
*1453 FILLER_104_277
*1454 FILLER_104_289
*1455 FILLER_104_29
*1456 FILLER_104_3
*1457 FILLER_104_301
*1458 FILLER_104_307
*1459 FILLER_104_309
*1460 FILLER_104_321
*1461 FILLER_104_333
*1462 FILLER_104_345
*1463 FILLER_104_357
*1464 FILLER_104_363
*1465 FILLER_104_365
*1466 FILLER_104_377
*1467 FILLER_104_389
*1468 FILLER_104_401
*1469 FILLER_104_41
*1470 FILLER_104_413
*1471 FILLER_104_419
*1472 FILLER_104_421
*1473 FILLER_104_433
*1474 FILLER_104_445
*1475 FILLER_104_457
*1476 FILLER_104_469
*1477 FILLER_104_475
*1478 FILLER_104_477
*1479 FILLER_104_489
*1480 FILLER_104_501
*1481 FILLER_104_513
*1482 FILLER_104_525
*1483 FILLER_104_53
*1484 FILLER_104_531
*1485 FILLER_104_533
*1486 FILLER_104_545
*1487 FILLER_104_557
*1488 FILLER_104_569
*1489 FILLER_104_581
*1490 FILLER_104_587
*1491 FILLER_104_589
*1492 FILLER_104_601
*1493 FILLER_104_613
*1494 FILLER_104_625
*1495 FILLER_104_637
*1496 FILLER_104_643
*1497 FILLER_104_645
*1498 FILLER_104_65
*1499 FILLER_104_657
*1500 FILLER_104_669
*1501 FILLER_104_681
*1502 FILLER_104_693
*1503 FILLER_104_699
*1504 FILLER_104_701
*1505 FILLER_104_713
*1506 FILLER_104_725
*1507 FILLER_104_737
*1508 FILLER_104_749
*1509 FILLER_104_755
*1510 FILLER_104_757